<configuration>
 <input>
  <net-file value="intersection.net.xml"/>
  <route-files value="inter.rou.xml"/>
 <!-- <additional-files value="intersection.add.xml"/> -->
 </input>
 <time>
   <begin value="0"/>
   <end value="500"/>
  </time>
</configuration>
