<configuration>
 <input>
  <net-file value="intersection.net.xml"/>
  <route-files value="inter.rou.xml"/>
  <!-- <additional-files value="intersection.add.xml"/> -->
 </input>
 <time>
   <begin value="0"/>
   <end value="500"/>
  </time>
  <processing>
    <collision.check-junctions value="true"/>
    <!--<collision.mingap-factor value="2.5"/>-->
    <collision.action value="teleport"/>
    <collision.stoptime value="120"/>
    <time-to-teleport value="120"/>
  </processing>

</configuration>
