<additional>
  <!--<tlLogic id="0" type="static" programID="off">
  </tlLogic>-->
  <edgeData id="1i" file="1i.xml" freq="10" excludeEmpty="true"/>
</additional>
