<routes>
  <vType accel="5.0" decel="6.0" id="CarA" length="5.0" minGap="0" maxSpeed="20.0" sigma="0.5"  jmIgnoreFoeProb="1" jmIgnoreFoeSpeed="100" jmIgnoreKeepClearTime="2" jmCrossingGap="0" jmDriveAfterRedTime="100" jmDriveAfterYellowTime="100" />
  <vType accel="3.0" decel="6.0" id="CarB" length="4.5" minGap="2.5" maxSpeed="20.0" sigma="0.5"/>
  <vType id="CarC" accel="3.0" length="5.0" minGap="2.5" maxSpeed="15.0" sigma="0.5" />
  <vType accel="1.0" decel="5.0" id="CarD" length="7.5" minGap="2.5" maxSpeed="30.0" sigma="0.5" />
  <vType id="p0" vClass="pedestrian" width="0.70" length="0.90" minGap="1" color="255,255,0" jmDriveAfterRedTime="250" />
  <route id="r01" edges="1i 4o"/>
  <route id="r02" edges="2i 1o"/>
  <route id="r03" edges="3i 4o"/>
  <route id="r04" edges="4i 3o"/>
  <route id="r05" edges="1i 2o"/>

<personFlow id="p1" type="p0" begin="0" end="4" number="2" departPos="480">
       <walk from="1i" to="2o" speed="1.2"/>
</personFlow>


<flow id="f1" type="CarB" from="1i" to="4o" period="30" departSpeed="random" departLane="3" maxSpeed="20.0" accel="3.5"/>
<flow id="f2" type="CarB" from="1i" to="2o" period="30" departSpeed="random" maxSpeed="20.0" departLane="2" accel="3.0"/>


</routes>

