<additional>
  <tlLogic id="0" type="static" programID="off">
  </tlLogic>
</additional>
